*Heading
** Job name: dicing_4HSiC_d060_bw40 Model name: dicing_4HSiC_d060_bw40
** Generated by: Abaqus/CAE 2024
*Preprint, echo=NO, model=NO, history=NO, contact=NO
**
** PARTS
**
*Part, name=Blade
*Node
      1, 1.99999995e-05,           0.
      2, 1.40000002e-05, -6.00000021e-06
      3, -1.40000002e-05, -6.00000021e-06
      4, -1.99999995e-05,           0.
      5, 1.89999992e-05, -9.99999997e-07
      6, 1.80000006e-05, -1.99999999e-06
      7, 1.70000003e-05, -3.00000011e-06
      8,      1.6e-05, -3.99999999e-06
      9, 1.49999996e-05, -4.99999987e-06
     10, 1.25263159e-05, -6.00000021e-06
     11, 1.10526316e-05, -6.00000021e-06
     12, 9.57894736e-06, -6.00000021e-06
     13, 8.10526308e-06, -6.00000021e-06
     14, 6.6315788e-06, -6.00000021e-06
     15, 5.15789452e-06, -6.00000021e-06
     16, 3.68421047e-06, -6.00000021e-06
     17, 2.21052642e-06, -6.00000021e-06
     18, 7.36842082e-07, -6.00000021e-06
     19, -7.36842082e-07, -6.00000021e-06
     20, -2.21052642e-06, -6.00000021e-06
** ... 12 like lines cut
*Element, type=R2D2
1, 1, 5
2, 5, 6
3, 6, 7
4, 7, 8
5, 8, 9
6, 9, 2
 7,  2, 10
 8, 10, 11
 9, 11, 12
10, 12, 13
11, 13, 14
12, 14, 15
13, 15, 16
14, 16, 17
15, 17, 18
16, 18, 19
17, 19, 20
18, 20, 21
19, 21, 22
20, 22, 23
** ... 11 like lines cut
*Node
     33,           0.,           0.,           0.
*Nset, nset=Blade-RefPt_, internal
33, 
*Elset, elset=Blade, generate
  1,  31,   1
*End Part
**  
*Part, name=Wafer
*Node
      1, 0.000369999994,           0.
      2, 0.000369999994, 0.000199999995
      3,      0.00013, 0.000199999995
      4,      0.00013,           0.
      5,           0., 0.000199999995
      6,           0.,           0.
      7, 0.000500000024,           0.
      8, 0.000500000024, 0.000199999995
      9, 0.000369999994, 1.50375945e-06
     10, 0.000369999994, 3.0075189e-06
     11, 0.000369999994, 4.51127835e-06
     12, 0.000369999994, 6.0150378e-06
     13, 0.000369999994, 7.51879679e-06
     14, 0.000369999994, 9.0225567e-06
     15, 0.000369999994, 1.05263161e-05
     16, 0.000369999994, 1.20300756e-05
     17, 0.000369999994, 1.35338341e-05
     18, 0.000369999994, 1.50375936e-05
     19, 0.000369999994, 1.6541353e-05
     20, 0.000369999994, 1.80451134e-05
** ... 28522 like lines cut
*Element, type=CPE4R
    1,     1,     9,   955,   590
    2,     9,    10,   956,   955
    3,    10,    11,   957,   956
    4,    11,    12,   958,   957
    5,    12,    13,   959,   958
    6,    13,    14,   960,   959
    7,    14,    15,   961,   960
    8,    15,    16,   962,   961
    9,    16,    17,   963,   962
   10,    17,    18,   964,   963
   11,    18,    19,   965,   964
   12,    19,    20,   966,   965
   13,    20,    21,   967,   966
   14,    21,    22,   968,   967
   15,    22,    23,   969,   968
   16,    23,    24,   970,   969
   17,    24,    25,   971,   970
   18,    25,    26,   972,   971
   19,    26,    27,   973,   972
   20,    27,    28,   974,   973
** ... 28176 like lines cut
*Nset, nset=WaferAll, generate
     1,  28542,      1
*Elset, elset=WaferAll, generate
     1,  28196,      1
** Section: WaferSec
*Solid Section, elset=WaferAll, controls=EC-1, material=M_4H_SiC
1.,
*End Part
**  
**
** ASSEMBLY
**
*Assembly, name=Assembly
**  
*Instance, name=Wafer-1, part=Wafer
*End Instance
**  
*Instance, name=Blade-1, part=Blade
       4e-05,     0.000206,           0.
*End Instance
**  
*Nset, nset=_PickedSet6, internal, instance=Wafer-1
   1,   4, 432, 433, 434, 435, 436, 437, 438, 439, 440, 441, 442, 443, 444, 445
 446, 447, 448, 449, 450, 451, 452, 453, 454, 455, 456, 457, 458, 459, 460, 461
 462, 463, 464, 465, 466, 467, 468, 469, 470, 471, 472, 473, 474, 475, 476, 477
 478, 479, 480, 481, 482, 483, 484, 485, 486, 487, 488, 489, 490, 491, 492, 493
 494, 495, 496, 497, 498, 499, 500, 501, 502, 503, 504, 505, 506, 507, 508, 509
 510, 511, 512, 513, 514, 515, 516, 517, 518, 519, 520, 521, 522, 523, 524, 525
 526, 527, 528, 529, 530, 531, 532, 533, 534, 535, 536, 537, 538, 539, 540, 541
 542, 543, 544, 545, 546, 547, 548, 549, 550, 551, 552, 553, 554, 555, 556, 557
 558, 559, 560, 561, 562, 563, 564, 565, 566, 567, 568, 569, 570, 571, 572, 573
 574, 575, 576, 577, 578, 579, 580, 581, 582, 583, 584, 585, 586, 587, 588, 589
 590,
*Elset, elset=_PickedSet6, internal, instance=Wafer-1, generate
     1,  21148,    133
*Nset, nset=_PickedSet7, internal, instance=Wafer-1
   5,   6, 616, 617, 618, 619, 620, 621, 622, 623, 624, 625, 626, 627, 628, 629
 630, 631, 632, 633, 634, 635, 636, 637, 638, 639, 640, 641, 642, 643, 644, 645
 646, 647, 648, 649, 650, 651, 652, 653, 654, 655, 656, 657, 658, 659, 660, 661
 662, 663, 664, 665, 666, 667, 668, 669, 670, 671, 672, 673, 674, 675, 676, 677
 678, 679, 680, 681, 682, 683, 684, 685, 686, 687, 688, 689, 690, 691, 692, 693
 694, 695, 696, 697, 698, 699, 700, 701, 702, 703, 704, 705, 706, 707, 708, 709
 710, 711, 712, 713, 714, 715, 716, 717, 718, 719, 720, 721, 722, 723, 724, 725
 726, 727, 728, 729, 730, 731, 732, 733, 734, 735, 736, 737, 738, 739, 740, 741
 742, 743, 744, 745, 746, 747
*Elset, elset=_PickedSet7, internal, instance=Wafer-1, generate
 24606,  24738,      1
*Nset, nset=_PickedSet8, internal, instance=Wafer-1
   7,   8, 798, 799, 800, 801, 802, 803, 804, 805, 806, 807, 808, 809, 810, 811
 812, 813, 814, 815, 816, 817, 818, 819, 820, 821, 822, 823, 824, 825, 826, 827
 828, 829, 830, 831, 832, 833, 834, 835, 836, 837, 838, 839, 840, 841, 842, 843
 844, 845, 846, 847, 848, 849, 850, 851, 852, 853, 854, 855, 856, 857, 858, 859
 860, 861, 862, 863, 864, 865, 866, 867, 868, 869, 870, 871, 872, 873, 874, 875
 876, 877, 878, 879, 880, 881, 882, 883, 884, 885, 886, 887, 888, 889, 890, 891
 892, 893, 894, 895, 896, 897, 898, 899, 900, 901, 902, 903, 904, 905, 906, 907
 908, 909, 910, 911, 912, 913, 914, 915, 916, 917, 918, 919, 920, 921, 922, 923
 924, 925, 926, 927, 928, 929
*Elset, elset=_PickedSet8, internal, instance=Wafer-1, generate
 28064,  28196,      1
*Nset, nset=_PickedSet9, internal, instance=Blade-1
 33,
*Nset, nset=_PickedSet10, internal, instance=Blade-1
 33,
*Nset, nset=_PickedSet13, internal, instance=Blade-1
 33,
*Elset, elset=_BladeSurf_SPOS, internal, instance=Blade-1, generate
  1,  31,   1
*Surface, type=ELEMENT, name=BladeSurf
_BladeSurf_SPOS, SNEG
*Elset, elset=_WaferTop_S2, internal, instance=Wafer-1, generate
   133,  21280,    133
*Surface, type=ELEMENT, name=WaferTop
_WaferTop_S2, S2
*Rigid Body, ref node=Blade-1.Blade-RefPt_, elset=Blade-1.Blade
*End Assembly
** 
** ELEMENT CONTROLS
** 
*Section Controls, name=EC-1, DISTORTION CONTROL=YES, hourglass=ENHANCED
1., 1., 1.
** 
** MATERIALS
** 
*Material, name=M_4H_SiC
*Density
3210.,
*Drucker Prager
 68.8,1.,0.
*Drucker Prager Hardening, type=SHEAR
 1e+09,0.
*Elastic
 4.48e+11, 0.21
** 
** INTERACTION PROPERTIES
** 
*Surface Interaction, name=FricContact
*Friction
 0.3,
*Surface Behavior, pressure-overclosure=HARD
** 
** BOUNDARY CONDITIONS
** 
** Name: BladeRot Type: Displacement/Rotation
*Boundary
_PickedSet9, 6, 6
** Name: WaferBottom Type: Symmetry/Antisymmetry/Encastre
*Boundary
_PickedSet6, ENCASTRE
** Name: WaferLeft Type: Displacement/Rotation
*Boundary
_PickedSet7, 1, 1
** Name: WaferRight Type: Displacement/Rotation
*Boundary
_PickedSet8, 1, 1
** ----------------------------------------------------------------
** 
** STEP: Plunge
** 
*Step, name=Plunge, nlgeom=YES
*Dynamic, Explicit
, 0.00012
*Bulk Viscosity
0.06, 1.2
** Mass Scaling: Semi-Automatic
**               Whole Model
*Fixed Mass Scaling, dt=1.00e-08, type=BELOW MIN
** 
** BOUNDARY CONDITIONS
** 
** Name: BladeMotion Type: Velocity/Angular velocity
*Boundary, type=VELOCITY
_PickedSet10, 1, 1
_PickedSet10, 2, 2, -0.5
** 
** INTERACTIONS
** 
** Interaction: BladeCut
*Contact Pair, interaction=FricContact, mechanical constraint=PENALTY, cpset=BladeCut
BladeSurf, WaferTop
** 
** OUTPUT REQUESTS
** 
*Restart, write, number interval=1, time marks=NO
** 
** FIELD OUTPUT: F-Output-1
** 
*Output, field, time interval=1.84e-05
*Node Output
U, 
*Element Output, directions=YES
ENER, PEEQ, S, SDV, STATUS
** 
** HISTORY OUTPUT: H-Output-1
** 
*Output, history, variable=PRESELECT
** 
** HISTORY OUTPUT: BladeForce
** 
*Output, history, time interval=4e-07
*Node Output, nset=_PickedSet13
RF1, RF2, U1, U2
*End Step
** ----------------------------------------------------------------
** 
** STEP: Feed
** 
*Step, name=Feed, nlgeom=YES
*Dynamic, Explicit
, 0.0008
*Bulk Viscosity
0.06, 1.2
** Mass Scaling: Semi-Automatic
**               Whole Model
*Fixed Mass Scaling, dt=1.00e-08, type=BELOW MIN
** 
** BOUNDARY CONDITIONS
** 
** Name: BladeMotion Type: Velocity/Angular velocity
*Boundary, type=VELOCITY
_PickedSet10, 1, 1, 0.5
_PickedSet10, 2, 2
** 
** OUTPUT REQUESTS
** 
*Restart, write, number interval=1, time marks=NO
** 
** FIELD OUTPUT: F-Output-1
** 
*Output, field, time interval=1.84e-05
*Node Output
U, 
*Element Output, directions=YES
ENER, PEEQ, S, SDV, STATUS
** 
** HISTORY OUTPUT: H-Output-1
** 
*Output, history, variable=PRESELECT
** 
** HISTORY OUTPUT: BladeForce
** 
*Output, history, time interval=2.66667e-06
*Node Output, nset=_PickedSet13
RF1, RF2, U1, U2
*End Step
