*Heading
** Job name: dicing_4HSiC_d020_bw40 Model name: dicing_4HSiC_d020_bw40
** Generated by: Abaqus/CAE 2024
*Preprint, echo=NO, model=NO, history=NO, contact=NO
**
** PARTS
**
*Part, name=Blade
*Node
      1, 1.99999995e-05,           0.
      2, 1.40000002e-05, -6.00000021e-06
      3, -1.40000002e-05, -6.00000021e-06
      4, -1.99999995e-05,           0.
      5, 1.89999992e-05, -9.99999997e-07
      6, 1.80000006e-05, -1.99999999e-06
      7, 1.70000003e-05, -3.00000011e-06
      8,      1.6e-05, -3.99999999e-06
      9, 1.49999996e-05, -4.99999987e-06
     10, 1.25263159e-05, -6.00000021e-06
     11, 1.10526316e-05, -6.00000021e-06
     12, 9.57894736e-06, -6.00000021e-06
     13, 8.10526308e-06, -6.00000021e-06
     14, 6.6315788e-06, -6.00000021e-06
     15, 5.15789452e-06, -6.00000021e-06
     16, 3.68421047e-06, -6.00000021e-06
     17, 2.21052642e-06, -6.00000021e-06
     18, 7.36842082e-07, -6.00000021e-06
     19, -7.36842082e-07, -6.00000021e-06
     20, -2.21052642e-06, -6.00000021e-06
** ... 12 like lines cut
*Element, type=R2D2
1, 1, 5
2, 5, 6
3, 6, 7
4, 7, 8
5, 8, 9
6, 9, 2
 7,  2, 10
 8, 10, 11
 9, 11, 12
10, 12, 13
11, 13, 14
12, 14, 15
13, 15, 16
14, 16, 17
15, 17, 18
16, 18, 19
17, 19, 20
18, 20, 21
19, 21, 22
20, 22, 23
** ... 11 like lines cut
*Node
     33,           0.,           0.,           0.
*Nset, nset=Blade-RefPt_, internal
33, 
*Elset, elset=Blade, generate
  1,  31,   1
*End Part
**  
*Part, name=Wafer
*Node
      1, 0.000369999994,           0.
      2, 0.000369999994, 0.000199999995
      3,      0.00013, 0.000199999995
      4,      0.00013,           0.
      5,           0., 0.000199999995
      6,           0.,           0.
      7, 0.000500000024,           0.
      8, 0.000500000024, 0.000199999995
      9, 0.000369999994, 4.99999987e-06
     10, 0.000369999994, 9.99999975e-06
     11, 0.000369999994, 1.49999996e-05
     12, 0.000369999994, 1.99999995e-05
     13, 0.000369999994, 2.49999994e-05
     14, 0.000369999994, 2.99999992e-05
     15, 0.000369999994, 3.50000009e-05
     16, 0.000369999994, 3.9999999e-05
     17, 0.000369999994, 4.50000007e-05
     18, 0.000369999994, 4.99999987e-05
     19, 0.000369999994, 5.50000004e-05
     20, 0.000369999994, 5.99999985e-05
** ... 8713 like lines cut
*Element, type=CPE4R
   1,    1,    9,  583,  404
   2,    9,   10,  584,  583
   3,   10,   11,  585,  584
   4,   11,   12,  586,  585
   5,   12,   13,  587,  586
   6,   13,   14,  588,  587
   7,   14,   15,  589,  588
   8,   15,   16,  590,  589
   9,   16,   17,  591,  590
  10,   17,   18,  592,  591
  11,   18,   19,  593,  592
  12,   19,   20,  594,  593
  13,   20,   21,  595,  594
  14,   21,   22,  596,  595
  15,   22,   23,  597,  596
  16,   23,   24,  598,  597
  17,   24,   25,  599,  598
  18,   25,   26,  600,  599
  19,   26,   27,  601,  600
  20,   27,   28,  602,  601
** ... 8460 like lines cut
*Nset, nset=WaferAll, generate
    1,  8733,     1
*Elset, elset=WaferAll, generate
    1,  8480,     1
** Section: WaferSec
*Solid Section, elset=WaferAll, controls=EC-1, material=M_4H_SiC
1.,
*End Part
**  
**
** ASSEMBLY
**
*Assembly, name=Assembly
**  
*Instance, name=Wafer-1, part=Wafer
*End Instance
**  
*Instance, name=Blade-1, part=Blade
       4e-05,     0.000206,           0.
*End Instance
**  
*Nset, nset=_PickedSet6, internal, instance=Wafer-1
   1,   4, 246, 247, 248, 249, 250, 251, 252, 253, 254, 255, 256, 257, 258, 259
 260, 261, 262, 263, 264, 265, 266, 267, 268, 269, 270, 271, 272, 273, 274, 275
 276, 277, 278, 279, 280, 281, 282, 283, 284, 285, 286, 287, 288, 289, 290, 291
 292, 293, 294, 295, 296, 297, 298, 299, 300, 301, 302, 303, 304, 305, 306, 307
 308, 309, 310, 311, 312, 313, 314, 315, 316, 317, 318, 319, 320, 321, 322, 323
 324, 325, 326, 327, 328, 329, 330, 331, 332, 333, 334, 335, 336, 337, 338, 339
 340, 341, 342, 343, 344, 345, 346, 347, 348, 349, 350, 351, 352, 353, 354, 355
 356, 357, 358, 359, 360, 361, 362, 363, 364, 365, 366, 367, 368, 369, 370, 371
 372, 373, 374, 375, 376, 377, 378, 379, 380, 381, 382, 383, 384, 385, 386, 387
 388, 389, 390, 391, 392, 393, 394, 395, 396, 397, 398, 399, 400, 401, 402, 403
 404,
*Elset, elset=_PickedSet6, internal, instance=Wafer-1, generate
    1,  6361,    40
*Nset, nset=_PickedSet7, internal, instance=Wafer-1
   5,   6, 430, 431, 432, 433, 434, 435, 436, 437, 438, 439, 440, 441, 442, 443
 444, 445, 446, 447, 448, 449, 450, 451, 452, 453, 454, 455, 456, 457, 458, 459
 460, 461, 462, 463, 464, 465, 466, 467, 468
*Elset, elset=_PickedSet7, internal, instance=Wafer-1, generate
 7401,  7440,     1
*Nset, nset=_PickedSet8, internal, instance=Wafer-1
   7,   8, 519, 520, 521, 522, 523, 524, 525, 526, 527, 528, 529, 530, 531, 532
 533, 534, 535, 536, 537, 538, 539, 540, 541, 542, 543, 544, 545, 546, 547, 548
 549, 550, 551, 552, 553, 554, 555, 556, 557
*Elset, elset=_PickedSet8, internal, instance=Wafer-1, generate
 8441,  8480,     1
*Nset, nset=_PickedSet9, internal, instance=Blade-1
 33,
*Nset, nset=_PickedSet10, internal, instance=Blade-1
 33,
*Nset, nset=_PickedSet13, internal, instance=Blade-1
 33,
*Elset, elset=_BladeSurf_SPOS, internal, instance=Blade-1, generate
  1,  31,   1
*Surface, type=ELEMENT, name=BladeSurf
_BladeSurf_SPOS, SNEG
*Elset, elset=_WaferTop_S2, internal, instance=Wafer-1, generate
   40,  6400,    40
*Surface, type=ELEMENT, name=WaferTop
_WaferTop_S2, S2
*Rigid Body, ref node=Blade-1.Blade-RefPt_, elset=Blade-1.Blade
*End Assembly
** 
** ELEMENT CONTROLS
** 
*Section Controls, name=EC-1, DISTORTION CONTROL=YES, hourglass=ENHANCED
1., 1., 1.
** 
** MATERIALS
** 
*Material, name=M_4H_SiC
*Density
3210.,
*Drucker Prager
 68.8,1.,0.
*Drucker Prager Hardening, type=SHEAR
 1e+09,0.
*Elastic
 4.48e+11, 0.21
** 
** INTERACTION PROPERTIES
** 
*Surface Interaction, name=FricContact
*Friction
 0.3,
*Surface Behavior, pressure-overclosure=HARD
** 
** BOUNDARY CONDITIONS
** 
** Name: BladeRot Type: Displacement/Rotation
*Boundary
_PickedSet9, 6, 6
** Name: WaferBottom Type: Symmetry/Antisymmetry/Encastre
*Boundary
_PickedSet6, ENCASTRE
** Name: WaferLeft Type: Displacement/Rotation
*Boundary
_PickedSet7, 1, 1
** Name: WaferRight Type: Displacement/Rotation
*Boundary
_PickedSet8, 1, 1
** ----------------------------------------------------------------
** 
** STEP: Plunge
** 
*Step, name=Plunge, nlgeom=YES
*Dynamic, Explicit
, 4e-05
*Bulk Viscosity
0.06, 1.2
** Mass Scaling: Semi-Automatic
**               Whole Model
*Fixed Mass Scaling, dt=1.00e-08, type=BELOW MIN
** 
** BOUNDARY CONDITIONS
** 
** Name: BladeMotion Type: Velocity/Angular velocity
*Boundary, type=VELOCITY
_PickedSet10, 1, 1
_PickedSet10, 2, 2, -0.5
** 
** INTERACTIONS
** 
** Interaction: BladeCut
*Contact Pair, interaction=FricContact, mechanical constraint=PENALTY, cpset=BladeCut
BladeSurf, WaferTop
** 
** OUTPUT REQUESTS
** 
*Restart, write, number interval=1, time marks=NO
** 
** FIELD OUTPUT: F-Output-1
** 
*Output, field, time interval=1.68e-05
*Node Output
U, 
*Element Output, directions=YES
ENER, PEEQ, S, SDV, STATUS
** 
** HISTORY OUTPUT: H-Output-1
** 
*Output, history, variable=PRESELECT
** 
** HISTORY OUTPUT: BladeForce
** 
*Output, history, time interval=1.33333e-07
*Node Output, nset=_PickedSet13
RF1, RF2, U1, U2
*End Step
** ----------------------------------------------------------------
** 
** STEP: Feed
** 
*Step, name=Feed, nlgeom=YES
*Dynamic, Explicit
, 0.0008
*Bulk Viscosity
0.06, 1.2
** Mass Scaling: Semi-Automatic
**               Whole Model
*Fixed Mass Scaling, dt=1.00e-08, type=BELOW MIN
** 
** BOUNDARY CONDITIONS
** 
** Name: BladeMotion Type: Velocity/Angular velocity
*Boundary, type=VELOCITY
_PickedSet10, 1, 1, 0.5
_PickedSet10, 2, 2
** 
** OUTPUT REQUESTS
** 
*Restart, write, number interval=1, time marks=NO
** 
** FIELD OUTPUT: F-Output-1
** 
*Output, field, time interval=1.68e-05
*Node Output
U, 
*Element Output, directions=YES
ENER, PEEQ, S, SDV, STATUS
** 
** HISTORY OUTPUT: H-Output-1
** 
*Output, history, variable=PRESELECT
** 
** HISTORY OUTPUT: BladeForce
** 
*Output, history, time interval=2.66667e-06
*Node Output, nset=_PickedSet13
RF1, RF2, U1, U2
*End Step
