*Heading
** Job name: dicing_4HSiC_d030_bw20 Model name: dicing_4HSiC_d030_bw20
** Generated by: Abaqus/CAE 2024
*Preprint, echo=NO, model=NO, history=NO, contact=NO
**
** PARTS
**
*Part, name=Blade
*Node
      1, 9.99999975e-06,           0.
      2, 7.0000001e-06, -3.00000011e-06
      3, -7.0000001e-06, -3.00000011e-06
      4, -9.99999975e-06,           0.
      5, 9.00000032e-06, -9.99999997e-07
      6, 7.99999998e-06, -1.99999999e-06
      7, 5.44444447e-06, -3.00000011e-06
      8, 3.88888884e-06, -3.00000011e-06
      9, 2.33333344e-06, -3.00000011e-06
     10, 7.77777757e-07, -3.00000011e-06
     11, -7.77777757e-07, -3.00000011e-06
     12, -2.33333344e-06, -3.00000011e-06
     13, -3.88888884e-06, -3.00000011e-06
     14, -5.44444447e-06, -3.00000011e-06
     15, -7.99999998e-06, -1.99999999e-06
     16, -9.00000032e-06, -9.99999997e-07
*Element, type=R2D2
1, 1, 5
2, 5, 6
3, 6, 2
 4,  2,  7
 5,  7,  8
 6,  8,  9
 7,  9, 10
 8, 10, 11
 9, 11, 12
10, 12, 13
11, 13, 14
12, 14,  3
13,  3, 15
14, 15, 16
15, 16,  4
*Node
     17,           0.,           0.,           0.
*Nset, nset=Blade-RefPt_, internal
17, 
*Elset, elset=Blade, generate
  1,  15,   1
*End Part
**  
*Part, name=Wafer
*Node
      1, 0.000310000003,           0.
      2, 0.000310000003, 0.000199999995
      3, 0.000190000006, 0.000199999995
      4, 0.000190000006,           0.
      5,           0., 0.000199999995
      6,           0.,           0.
      7, 0.000500000024,           0.
      8, 0.000500000024, 0.000199999995
      9, 0.000310000003, 4.99999987e-06
     10, 0.000310000003, 9.99999975e-06
     11, 0.000310000003, 1.49999996e-05
     12, 0.000310000003, 1.99999995e-05
     13, 0.000310000003, 2.49999994e-05
     14, 0.000310000003, 2.99999992e-05
     15, 0.000310000003, 3.50000009e-05
     16, 0.000310000003, 3.9999999e-05
     17, 0.000310000003, 4.50000007e-05
     18, 0.000310000003, 4.99999987e-05
     19, 0.000310000003, 5.50000004e-05
     20, 0.000310000003, 5.99999985e-05
** ... 6417 like lines cut
*Element, type=CPE4R
   1,    1,    9,  471,  244
   2,    9,   10,  472,  471
   3,   10,   11,  473,  472
   4,   11,   12,  474,  473
   5,   12,   13,  475,  474
   6,   13,   14,  476,  475
   7,   14,   15,  477,  476
   8,   15,   16,  478,  477
   9,   16,   17,  479,  478
  10,   17,   18,  480,  479
  11,   18,   19,  481,  480
  12,   19,   20,  482,  481
  13,   20,   21,  483,  482
  14,   21,   22,  484,  483
  15,   22,   23,  485,  484
  16,   23,   24,  486,  485
  17,   24,   25,  487,  486
  18,   25,   26,  488,  487
  19,   26,   27,  489,  488
  20,   27,   28,  490,  489
** ... 6220 like lines cut
*Nset, nset=WaferAll, generate
    1,  6437,     1
*Elset, elset=WaferAll, generate
    1,  6240,     1
** Section: WaferSec
*Solid Section, elset=WaferAll, controls=EC-1, material=M_4H_SiC
1.,
*End Part
**  
**
** ASSEMBLY
**
*Assembly, name=Assembly
**  
*Instance, name=Wafer-1, part=Wafer
*End Instance
**  
*Instance, name=Blade-1, part=Blade
       2e-05,     0.000203,           0.
*End Instance
**  
*Nset, nset=_PickedSet6, internal, instance=Wafer-1
   1,   4, 166, 167, 168, 169, 170, 171, 172, 173, 174, 175, 176, 177, 178, 179
 180, 181, 182, 183, 184, 185, 186, 187, 188, 189, 190, 191, 192, 193, 194, 195
 196, 197, 198, 199, 200, 201, 202, 203, 204, 205, 206, 207, 208, 209, 210, 211
 212, 213, 214, 215, 216, 217, 218, 219, 220, 221, 222, 223, 224, 225, 226, 227
 228, 229, 230, 231, 232, 233, 234, 235, 236, 237, 238, 239, 240, 241, 242, 243
 244,
*Elset, elset=_PickedSet6, internal, instance=Wafer-1, generate
    1,  3161,    40
*Nset, nset=_PickedSet7, internal, instance=Wafer-1
   5,   6, 282, 283, 284, 285, 286, 287, 288, 289, 290, 291, 292, 293, 294, 295
 296, 297, 298, 299, 300, 301, 302, 303, 304, 305, 306, 307, 308, 309, 310, 311
 312, 313, 314, 315, 316, 317, 318, 319, 320
*Elset, elset=_PickedSet7, internal, instance=Wafer-1, generate
 4681,  4720,     1
*Nset, nset=_PickedSet8, internal, instance=Wafer-1
   7,   8, 395, 396, 397, 398, 399, 400, 401, 402, 403, 404, 405, 406, 407, 408
 409, 410, 411, 412, 413, 414, 415, 416, 417, 418, 419, 420, 421, 422, 423, 424
 425, 426, 427, 428, 429, 430, 431, 432, 433
*Elset, elset=_PickedSet8, internal, instance=Wafer-1, generate
 6201,  6240,     1
*Nset, nset=_PickedSet9, internal, instance=Blade-1
 17,
*Nset, nset=_PickedSet10, internal, instance=Blade-1
 17,
*Nset, nset=_PickedSet13, internal, instance=Blade-1
 17,
*Elset, elset=_BladeSurf_SPOS, internal, instance=Blade-1, generate
  1,  15,   1
*Surface, type=ELEMENT, name=BladeSurf
_BladeSurf_SPOS, SNEG
*Elset, elset=_WaferTop_S2, internal, instance=Wafer-1, generate
   40,  3200,    40
*Surface, type=ELEMENT, name=WaferTop
_WaferTop_S2, S2
*Rigid Body, ref node=Blade-1.Blade-RefPt_, elset=Blade-1.Blade
*End Assembly
** 
** ELEMENT CONTROLS
** 
*Section Controls, name=EC-1, DISTORTION CONTROL=YES, hourglass=ENHANCED
1., 1., 1.
** 
** MATERIALS
** 
*Material, name=M_4H_SiC
*Density
3210.,
*Drucker Prager
 68.8,1.,0.
*Drucker Prager Hardening, type=SHEAR
 1e+09,0.
*Elastic
 4.48e+11, 0.21
** 
** INTERACTION PROPERTIES
** 
*Surface Interaction, name=FricContact
*Friction
 0.3,
*Surface Behavior, pressure-overclosure=HARD
** 
** BOUNDARY CONDITIONS
** 
** Name: BladeRot Type: Displacement/Rotation
*Boundary
_PickedSet9, 6, 6
** Name: WaferBottom Type: Symmetry/Antisymmetry/Encastre
*Boundary
_PickedSet6, ENCASTRE
** Name: WaferLeft Type: Displacement/Rotation
*Boundary
_PickedSet7, 1, 1
** Name: WaferRight Type: Displacement/Rotation
*Boundary
_PickedSet8, 1, 1
** ----------------------------------------------------------------
** 
** STEP: Plunge
** 
*Step, name=Plunge, nlgeom=YES
*Dynamic, Explicit
, 6e-05
*Bulk Viscosity
0.06, 1.2
** Mass Scaling: Semi-Automatic
**               Whole Model
*Fixed Mass Scaling, dt=1.00e-08, type=BELOW MIN
** 
** BOUNDARY CONDITIONS
** 
** Name: BladeMotion Type: Velocity/Angular velocity
*Boundary, type=VELOCITY
_PickedSet10, 1, 1
_PickedSet10, 2, 2, -0.5
** 
** INTERACTIONS
** 
** Interaction: BladeCut
*Contact Pair, interaction=FricContact, mechanical constraint=PENALTY, cpset=BladeCut
BladeSurf, WaferTop
** 
** OUTPUT REQUESTS
** 
*Restart, write, number interval=1, time marks=NO
** 
** FIELD OUTPUT: F-Output-1
** 
*Output, field, time interval=1.72e-05
*Node Output
U, 
*Element Output, directions=YES
ENER, PEEQ, S, SDV, STATUS
** 
** HISTORY OUTPUT: H-Output-1
** 
*Output, history, variable=PRESELECT
** 
** HISTORY OUTPUT: BladeForce
** 
*Output, history, time interval=2e-07
*Node Output, nset=_PickedSet13
RF1, RF2, U1, U2
*End Step
** ----------------------------------------------------------------
** 
** STEP: Feed
** 
*Step, name=Feed, nlgeom=YES
*Dynamic, Explicit
, 0.0008
*Bulk Viscosity
0.06, 1.2
** Mass Scaling: Semi-Automatic
**               Whole Model
*Fixed Mass Scaling, dt=1.00e-08, type=BELOW MIN
** 
** BOUNDARY CONDITIONS
** 
** Name: BladeMotion Type: Velocity/Angular velocity
*Boundary, type=VELOCITY
_PickedSet10, 1, 1, 0.5
_PickedSet10, 2, 2
** 
** OUTPUT REQUESTS
** 
*Restart, write, number interval=1, time marks=NO
** 
** FIELD OUTPUT: F-Output-1
** 
*Output, field, time interval=1.72e-05
*Node Output
U, 
*Element Output, directions=YES
ENER, PEEQ, S, SDV, STATUS
** 
** HISTORY OUTPUT: H-Output-1
** 
*Output, history, variable=PRESELECT
** 
** HISTORY OUTPUT: BladeForce
** 
*Output, history, time interval=2.66667e-06
*Node Output, nset=_PickedSet13
RF1, RF2, U1, U2
*End Step
