*Heading
** Job name: dicing_4HSiC_d060_bw30 Model name: dicing_4HSiC_d060_bw30
** Generated by: Abaqus/CAE 2024
*Preprint, echo=NO, model=NO, history=NO, contact=NO
**
** PARTS
**
*Part, name=Blade
*Node
      1, -1.49999996e-05,           0.
      2, -1.04999999e-05, -4.50000016e-06
      3, 1.04999999e-05, -4.50000016e-06
      4, 1.49999996e-05,           0.
      5, -1.38750001e-05, -1.12500004e-06
      6, -1.27499998e-05, -2.25000008e-06
      7, -1.16250003e-05, -3.37500001e-06
      8, -9.00000032e-06, -4.50000016e-06
      9, -7.49999981e-06, -4.50000016e-06
     10, -6.00000021e-06, -4.50000016e-06
     11, -4.50000016e-06, -4.50000016e-06
     12, -3.00000011e-06, -4.50000016e-06
     13, -1.50000005e-06, -4.50000016e-06
     14,           0., -4.50000016e-06
     15, 1.50000005e-06, -4.50000016e-06
     16, 3.00000011e-06, -4.50000016e-06
     17, 4.50000016e-06, -4.50000016e-06
     18, 6.00000021e-06, -4.50000016e-06
     19, 7.49999981e-06, -4.50000016e-06
     20, 9.00000032e-06, -4.50000016e-06
     21, 1.16250003e-05, -3.37500001e-06
     22, 1.27499998e-05, -2.25000008e-06
     23, 1.38750001e-05, -1.12500004e-06
*Element, type=R2D2
1, 1, 5
2, 5, 6
3, 6, 7
4, 7, 2
 5,  2,  8
 6,  8,  9
 7,  9, 10
 8, 10, 11
 9, 11, 12
10, 12, 13
11, 13, 14
12, 14, 15
13, 15, 16
14, 16, 17
15, 17, 18
16, 18, 19
17, 19, 20
18, 20,  3
19,  3, 21
20, 21, 22
21, 22, 23
22, 23,  4
*Node
     24,           0.,           0.,           0.
*Nset, nset=Blade-RefPt_, internal
24, 
*Elset, elset=Blade, generate
  1,  22,   1
*End Part
**  
*Part, name=Wafer
*Node
      1, 0.000339999999,           0.
      2, 0.000339999999, 0.000199999995
      3, 0.000159999996, 0.000199999995
      4, 0.000159999996,           0.
      5,           0., 0.000199999995
      6,           0.,           0.
      7, 0.000500000024,           0.
      8, 0.000500000024, 0.000199999995
      9, 0.000339999999, 1.50375945e-06
     10, 0.000339999999, 3.0075189e-06
     11, 0.000339999999, 4.51127835e-06
     12, 0.000339999999, 6.0150378e-06
     13, 0.000339999999, 7.51879679e-06
     14, 0.000339999999, 9.0225567e-06
     15, 0.000339999999, 1.05263161e-05
     16, 0.000339999999, 1.20300756e-05
     17, 0.000339999999, 1.35338341e-05
     18, 0.000339999999, 1.50375936e-05
     19, 0.000339999999, 1.6541353e-05
     20, 0.000339999999, 1.80451134e-05
** ... 24770 like lines cut
*Element, type=CPE4R
    1,     1,     9,   899,   510
    2,     9,    10,   900,   899
    3,    10,    11,   901,   900
    4,    11,    12,   902,   901
    5,    12,    13,   903,   902
    6,    13,    14,   904,   903
    7,    14,    15,   905,   904
    8,    15,    16,   906,   905
    9,    16,    17,   907,   906
   10,    17,    18,   908,   907
   11,    18,    19,   909,   908
   12,    19,    20,   910,   909
   13,    20,    21,   911,   910
   14,    21,    22,   912,   911
   15,    22,    23,   913,   912
   16,    23,    24,   914,   913
   17,    24,    25,   915,   914
   18,    25,    26,   916,   915
   19,    26,    27,   917,   916
   20,    27,    28,   918,   917
** ... 24452 like lines cut
*Nset, nset=WaferAll, generate
     1,  24790,      1
*Elset, elset=WaferAll, generate
     1,  24472,      1
** Section: WaferSec
*Solid Section, elset=WaferAll, controls=EC-1, material=M_4H_SiC
1e-06,
*End Part
**  
**
** ASSEMBLY
**
*Assembly, name=Assembly
**  
*Instance, name=Wafer-1, part=Wafer
*End Instance
**  
*Instance, name=Blade-1, part=Blade
       3e-05,    0.0002045,           0.
*End Instance
**  
*Nset, nset=_PickedSet6, internal, instance=Wafer-1
   1,   4, 392, 393, 394, 395, 396, 397, 398, 399, 400, 401, 402, 403, 404, 405
 406, 407, 408, 409, 410, 411, 412, 413, 414, 415, 416, 417, 418, 419, 420, 421
 422, 423, 424, 425, 426, 427, 428, 429, 430, 431, 432, 433, 434, 435, 436, 437
 438, 439, 440, 441, 442, 443, 444, 445, 446, 447, 448, 449, 450, 451, 452, 453
 454, 455, 456, 457, 458, 459, 460, 461, 462, 463, 464, 465, 466, 467, 468, 469
 470, 471, 472, 473, 474, 475, 476, 477, 478, 479, 480, 481, 482, 483, 484, 485
 486, 487, 488, 489, 490, 491, 492, 493, 494, 495, 496, 497, 498, 499, 500, 501
 502, 503, 504, 505, 506, 507, 508, 509, 510
*Elset, elset=_PickedSet6, internal, instance=Wafer-1, generate
     1,  15828,    133
*Nset, nset=_PickedSet7, internal, instance=Wafer-1
   5,   6, 542, 543, 544, 545, 546, 547, 548, 549, 550, 551, 552, 553, 554, 555
 556, 557, 558, 559, 560, 561, 562, 563, 564, 565, 566, 567, 568, 569, 570, 571
 572, 573, 574, 575, 576, 577, 578, 579, 580, 581, 582, 583, 584, 585, 586, 587
 588, 589, 590, 591, 592, 593, 594, 595, 596, 597, 598, 599, 600, 601, 602, 603
 604, 605, 606, 607, 608, 609, 610, 611, 612, 613, 614, 615, 616, 617, 618, 619
 620, 621, 622, 623, 624, 625, 626, 627, 628, 629, 630, 631, 632, 633, 634, 635
 636, 637, 638, 639, 640, 641, 642, 643, 644, 645, 646, 647, 648, 649, 650, 651
 652, 653, 654, 655, 656, 657, 658, 659, 660, 661, 662, 663, 664, 665, 666, 667
 668, 669, 670, 671, 672, 673
*Elset, elset=_PickedSet7, internal, instance=Wafer-1, generate
 20084,  20216,      1
*Nset, nset=_PickedSet8, internal, instance=Wafer-1
   7,   8, 736, 737, 738, 739, 740, 741, 742, 743, 744, 745, 746, 747, 748, 749
 750, 751, 752, 753, 754, 755, 756, 757, 758, 759, 760, 761, 762, 763, 764, 765
 766, 767, 768, 769, 770, 771, 772, 773, 774, 775, 776, 777, 778, 779, 780, 781
 782, 783, 784, 785, 786, 787, 788, 789, 790, 791, 792, 793, 794, 795, 796, 797
 798, 799, 800, 801, 802, 803, 804, 805, 806, 807, 808, 809, 810, 811, 812, 813
 814, 815, 816, 817, 818, 819, 820, 821, 822, 823, 824, 825, 826, 827, 828, 829
 830, 831, 832, 833, 834, 835, 836, 837, 838, 839, 840, 841, 842, 843, 844, 845
 846, 847, 848, 849, 850, 851, 852, 853, 854, 855, 856, 857, 858, 859, 860, 861
 862, 863, 864, 865, 866, 867
*Elset, elset=_PickedSet8, internal, instance=Wafer-1, generate
 24340,  24472,      1
*Nset, nset=_PickedSet9, internal, instance=Blade-1
 24,
*Nset, nset=_PickedSet10, internal, instance=Blade-1
 24,
*Nset, nset=_PickedSet13, internal, instance=Blade-1
 24,
*Elset, elset=_BladeSurf_SPOS, internal, instance=Blade-1, generate
  1,  22,   1
*Surface, type=ELEMENT, name=BladeSurf
_BladeSurf_SPOS, SPOS
*Elset, elset=_WaferTop_S2, internal, instance=Wafer-1, generate
   133,  15960,    133
*Surface, type=ELEMENT, name=WaferTop
_WaferTop_S2, S2
*Rigid Body, ref node=Blade-1.Blade-RefPt_, elset=Blade-1.Blade
*End Assembly
** 
** ELEMENT CONTROLS
** 
*Section Controls, name=EC-1, DISTORTION CONTROL=YES, hourglass=ENHANCED
1., 1., 1.
** 
** MATERIALS
** 
*Material, name=M_4H_SiC
*Damage Initiation, criterion=DUCTILE
   0.01,       -2.,        0.
  0.003,       -1.,        0.
  0.001, -0.333333,        0.
 0.0004,        0.,        0.
 0.0002,  0.333333,        0.
 0.0001,  0.666667,        0.
  5e-05,        1.,        0.
*Damage Evolution, type=ENERGY
 17.5,
*Density
3210.,
*Drucker Prager
 68.8,1.,0.
*Drucker Prager Hardening, type=SHEAR
 1e+09,0.
*Elastic
 4.48e+11, 0.21
** 
** INTERACTION PROPERTIES
** 
*Surface Interaction, name=FricContact
*Friction
 0.3,
*Surface Behavior, pressure-overclosure=HARD
** 
** BOUNDARY CONDITIONS
** 
** Name: BladeRot Type: Displacement/Rotation
*Boundary
_PickedSet9, 6, 6
** Name: WaferBottom Type: Symmetry/Antisymmetry/Encastre
*Boundary
_PickedSet6, ENCASTRE
** Name: WaferLeft Type: Displacement/Rotation
*Boundary
_PickedSet7, 1, 1
** Name: WaferRight Type: Displacement/Rotation
*Boundary
_PickedSet8, 1, 1
** ----------------------------------------------------------------
** 
** STEP: Plunge
** 
*Step, name=Plunge, nlgeom=YES
*Dynamic, Explicit
, 0.00012
*Bulk Viscosity
0.06, 1.2
** Mass Scaling: Semi-Automatic
**               Whole Model
*Fixed Mass Scaling, dt=1.00e-08, type=BELOW MIN
** 
** BOUNDARY CONDITIONS
** 
** Name: BladeMotion Type: Displacement/Rotation
*Boundary
_PickedSet10, 1, 1
_PickedSet10, 2, 2, -6e-05
** 
** INTERACTIONS
** 
** Interaction: BladeCut
*Contact Pair, interaction=FricContact, mechanical constraint=KINEMATIC, cpset=BladeCut
BladeSurf, WaferTop
** 
** OUTPUT REQUESTS
** 
*Restart, write, number interval=1, time marks=NO
** 
** FIELD OUTPUT: F-Output-1
** 
*Output, field, time interval=1.84e-05
*Node Output
U, 
*Element Output, directions=YES
ENER, PEEQ, S, SDV, STATUS
** 
** HISTORY OUTPUT: H-Output-1
** 
*Output, history, variable=PRESELECT
** 
** HISTORY OUTPUT: BladeForce
** 
*Output, history, time interval=4e-07
*Node Output, nset=_PickedSet13
RF1, RF2, U1, U2
*End Step
** ----------------------------------------------------------------
** 
** STEP: Feed
** 
*Step, name=Feed, nlgeom=YES
*Dynamic, Explicit
, 0.0008
*Bulk Viscosity
0.06, 1.2
** Mass Scaling: Semi-Automatic
**               Whole Model
*Fixed Mass Scaling, dt=1.00e-08, type=BELOW MIN
** 
** BOUNDARY CONDITIONS
** 
** Name: BladeMotion Type: Displacement/Rotation
*Boundary
_PickedSet10, 1, 1, 0.0004
_PickedSet10, 2, 2, -6e-05
** 
** OUTPUT REQUESTS
** 
*Restart, write, number interval=1, time marks=NO
** 
** FIELD OUTPUT: F-Output-1
** 
*Output, field, time interval=1.84e-05
*Node Output
U, 
*Element Output, directions=YES
ENER, PEEQ, S, SDV, STATUS
** 
** HISTORY OUTPUT: H-Output-1
** 
*Output, history, variable=PRESELECT
** 
** HISTORY OUTPUT: BladeForce
** 
*Output, history, time interval=2.66667e-06
*Node Output, nset=_PickedSet13
RF1, RF2, U1, U2
*End Step
