** Contact test WITH heavy mass scaling (dt=1e-10 target → ~200x scaling)
** Same geometry as test_contact_minimal but forces large mass scaling.
** If contact fails here, mass scaling is the root cause.
*Heading
2D contact test with mass scaling
**
*Part, name=Block
*Node
   1, 0.0,    0.0
   2, 500e-6, 0.0
   3, 500e-6, 200e-6
   4, 0.0,    200e-6
*Element, type=CPE4R
   1, 1, 2, 3, 4
*Solid Section, elset=All, material=SiCElastic
  1.0,
*Elset, elset=All
  1,
*Nset, nset=Bottom
  1, 2
*Nset, nset=Top
  3, 4
*End Part
**
*Part, name=Tool
*Node
   1, -250e-6, 0.0
   2,  250e-6, 0.0
   3,  0.0,    0.0
*Element, type=R2D2
   1, 1, 2
*Elset, elset=ToolEdge
  1,
*Rigid Body, ref node=3, elset=ToolEdge
*Nset, nset=RP
  3,
*End Part
**
*Assembly, name=Assembly
**
*Instance, name=Block-1, part=Block
*End Instance
**
*Instance, name=Tool-1, part=Tool
0., 205e-6, 0.
*End Instance
**
*Elset, elset=_TopElems, instance=Block-1
  1,
*Surface, type=ELEMENT, name=BlockTop
_TopElems, S3
**
*Elset, elset=_ToolElems, instance=Tool-1
  1,
*Surface, type=ELEMENT, name=ToolBottom
_ToolElems, SNEG
**
*Nset, nset=ToolRP, instance=Tool-1
  3,
**
*End Assembly
**
*Material, name=SiCElastic
*Elastic
  450e9, 0.17
*Density
  3200.,
**
*Step, name=Plunge, nlgeom=NO
*Dynamic, Explicit
, 1.2e-5
** Force heavy mass scaling: target dt=1e-10 (natural dt ~1.42e-8, so ~20000x scaling)
*Fixed Mass Scaling, dt=1e-10, type=BELOW MIN
**
*Boundary
Block-1.Bottom, ENCASTRE
*Boundary, type=VELOCITY
ToolRP, 1, 1
ToolRP, 2, 2, -1.0
ToolRP, 6, 6
**
*Contact Pair, interaction=FricContact, mechanical constraint=PENALTY
ToolBottom, BlockTop
*Surface Interaction, name=FricContact
*Friction
  0.3,
*Surface Behavior, pressure-overclosure=HARD
**
*Output, history, time interval=1e-7
*Node Output, nset=ToolRP
U2, RF2
*Node Output, nset=Block-1.Top
U2
*Output, field, number interval=5
*Node Output
U,
*End Step
