** Test: 10x20 wafer mesh (100µm×200µm, 10µm mesh) + 23µm narrow blade
** Blade centered at x=50µm, RIGHT→LEFT sketch, SPOS=downward, 5µm gap
*Heading
Wafer-like mesh contact test
**
*Part, name=Wafer
*Node
 1, 0.000000e+00, 0.000000e+00
 2, 1.000000e-05, 0.000000e+00
 3, 2.000000e-05, 0.000000e+00
 4, 3.000000e-05, 0.000000e+00
 5, 4.000000e-05, 0.000000e+00
 6, 5.000000e-05, 0.000000e+00
 7, 6.000000e-05, 0.000000e+00
 8, 7.000000e-05, 0.000000e+00
 9, 8.000000e-05, 0.000000e+00
 10, 9.000000e-05, 0.000000e+00
 11, 1.000000e-04, 0.000000e+00
 12, 0.000000e+00, 1.000000e-05
 13, 1.000000e-05, 1.000000e-05
 14, 2.000000e-05, 1.000000e-05
 15, 3.000000e-05, 1.000000e-05
 16, 4.000000e-05, 1.000000e-05
 17, 5.000000e-05, 1.000000e-05
 18, 6.000000e-05, 1.000000e-05
 19, 7.000000e-05, 1.000000e-05
 20, 8.000000e-05, 1.000000e-05
** ... 13 like lines cut
*Element, type=CPE4R
 191, 210, 211, 222, 221
 192, 211, 212, 223, 222
 193, 212, 213, 224, 223
 194, 213, 214, 225, 224
 195, 214, 215, 226, 225
 196, 215, 216, 227, 226
 197, 216, 217, 228, 227
 198, 217, 218, 229, 228
 199, 218, 219, 230, 229
 200, 219, 220, 231, 230
*Elset, elset=TopElems
 191, 192, 193, 194, 195, 196, 197, 198, 199, 200
*Solid Section, elset=All, material=SiCElastic
  1.0,
*Elset, elset=All, generate
 1, 200, 1
*Nset, nset=Bottom
 1, 2, 3, 4, 5, 6, 7, 8, 9, 10, 11
*Nset, nset=TopNodes
 221, 222, 223, 224, 225, 226, 227, 228, 229, 230, 231
*End Part
**
** Narrow 23µm blade: RIGHT→LEFT (SPOS=downward)
*Part, name=Blade
*Node
 1,  11.5e-6, 0.0
 2, -11.5e-6, 0.0
 3,  0.0,     0.0
*Element, type=R2D2
 1, 1, 2
*Elset, elset=BladeEdge
 1,
*Rigid Body, ref node=3, elset=BladeEdge
*Nset, nset=RP
 3,
*End Part
**
*Assembly, name=Assembly
**
*Instance, name=Wafer-1, part=Wafer
*End Instance
**
*Instance, name=Blade-1, part=Blade
50e-6, 205e-6, 0.
*End Instance
**
*Elset, elset=_TopElems, instance=Wafer-1
 191, 192, 193, 194, 195, 196, 197, 198, 199, 200
*Surface, type=ELEMENT, name=WaferTop
_TopElems, S3
**
*Elset, elset=_BladeElems, instance=Blade-1
 1,
*Surface, type=ELEMENT, name=BladeSurf
_BladeElems, SPOS
**
*Nset, nset=BladeRP, instance=Blade-1
 3,
**
*End Assembly
**
*Material, name=SiCElastic
*Elastic
 450e9, 0.17
*Density
 3200.,
**
*Step, name=Plunge, nlgeom=NO
*Dynamic, Explicit
, 1.2e-5
*Fixed Mass Scaling, dt=1e-8, type=BELOW MIN
**
*Boundary
Wafer-1.Bottom, ENCASTRE
*Boundary, type=VELOCITY
BladeRP, 1, 1
BladeRP, 2, 2, -1.0
BladeRP, 6, 6
**
*Contact Pair, interaction=FricContact, mechanical constraint=PENALTY
BladeSurf, WaferTop
*Surface Interaction, name=FricContact
*Friction
 0.3,
*Surface Behavior, pressure-overclosure=HARD
**
*Output, history, time interval=1e-7
*Node Output, nset=BladeRP
U2, RF2
*Node Output, nset=Wafer-1.TopNodes
U2
*Output, field, number interval=5
*Node Output
U,
*End Step
