*Heading
** Job name: dicing_4HSiC_d220_bw23 Model name: dicing_4HSiC_d220_bw23
** Generated by: Abaqus/CAE 2024
*Preprint, echo=NO, model=NO, history=NO, contact=NO
**
** PARTS
**
*Part, name=Blade
*Node
      1, -1.15000003e-05, 0.000115000003
      2, -1.15000003e-05, 0.000106785716
      3, -1.15000003e-05, 9.85714287e-05
      4, -1.15000003e-05, 9.03571417e-05
      5, -1.15000003e-05, 8.21428548e-05
      6, -1.15000003e-05, 7.39285679e-05
      7, -1.15000003e-05, 6.57142882e-05
      8, -1.15000003e-05, 5.75000013e-05
      9, -1.15000003e-05, 4.92857143e-05
     10, -1.15000003e-05, 4.10714274e-05
     11, -1.15000003e-05, 3.28571441e-05
     12, -1.15000003e-05, 2.46428572e-05
     13, -1.15000003e-05, 1.64285721e-05
     14, -1.15000003e-05, 8.21428603e-06
     15, -1.15000003e-05,           0.
     16, -9.58333294e-06, 0.000115000003
     17, -9.59702356e-06, 0.000106662497
     18, -9.61071419e-06, 9.83249993e-05
     19, -9.62440481e-06, 8.99875013e-05
     20, -9.63809543e-06, 8.16500033e-05
** ... 175 like lines cut
*Element, type=CPE4R
  1,   1,   2,  17,  16
  2,   2,   3,  18,  17
  3,   3,   4,  19,  18
  4,   4,   5,  20,  19
  5,   5,   6,  21,  20
  6,   6,   7,  22,  21
  7,   7,   8,  23,  22
  8,   8,   9,  24,  23
  9,   9,  10,  25,  24
 10,  10,  11,  26,  25
 11,  11,  12,  27,  26
 12,  12,  13,  28,  27
 13,  13,  14,  29,  28
 14,  14,  15,  30,  29
 15,  16,  17,  32,  31
 16,  17,  18,  33,  32
 17,  18,  19,  34,  33
 18,  19,  20,  35,  34
 19,  20,  21,  36,  35
 20,  21,  22,  37,  36
** ... 148 like lines cut
*Nset, nset=BladeAll, generate
   1,  195,    1
*Elset, elset=BladeAll, generate
   1,  168,    1
** Section: BladeSec
*Solid Section, elset=BladeAll, controls=EC-1, material=Resin_bond_blade
1.,
*End Part
**  
*Part, name=Wafer
*Node
      1, 0.000319000013,           0.
      2, 0.000319000013, 0.000449999992
      3, 0.000180999996, 0.000449999992
      4, 0.000180999996,           0.
      5,           0., 0.000449999992
      6,           0.,           0.
      7, 0.000500000024,           0.
      8, 0.000500000024, 0.000449999992
      9, 0.000319000013, 1.99999999e-06
     10, 0.000319000013, 3.99999999e-06
     11, 0.000319000013, 6.00000021e-06
     12, 0.000319000013, 7.99999998e-06
     13, 0.000319000013, 9.99999975e-06
     14, 0.000319000013, 1.20000004e-05
     15, 0.000319000013, 1.40000002e-05
     16, 0.000319000013,      1.6e-05
     17, 0.000319000013, 1.80000006e-05
     18, 0.000319000013, 1.99999995e-05
     19, 0.000319000013, 2.20000002e-05
     20, 0.000319000013, 2.40000008e-05
** ... 26196 like lines cut
*Element, type=CPE4R
    1,     1,     9,  1129,   592
    2,     9,    10,  1130,  1129
    3,    10,    11,  1131,  1130
    4,    11,    12,  1132,  1131
    5,    12,    13,  1133,  1132
    6,    13,    14,  1134,  1133
    7,    14,    15,  1135,  1134
    8,    15,    16,  1136,  1135
    9,    16,    17,  1137,  1136
   10,    17,    18,  1138,  1137
   11,    18,    19,  1139,  1138
   12,    19,    20,  1140,  1139
   13,    20,    21,  1141,  1140
   14,    21,    22,  1142,  1141
   15,    22,    23,  1143,  1142
   16,    23,    24,  1144,  1143
   17,    24,    25,  1145,  1144
   18,    25,    26,  1146,  1145
   19,    26,    27,  1147,  1146
   20,    27,    28,  1148,  1147
** ... 25855 like lines cut
*Nset, nset=WaferAll, generate
     1,  26216,      1
*Elset, elset=WaferAll, generate
     1,  25875,      1
** Section: WaferSec
*Solid Section, elset=WaferAll, controls=EC-1, material=M_4H_SiC
1.,
*End Part
**  
**
** ASSEMBLY
**
*Assembly, name=Assembly
**  
*Instance, name=Wafer-1, part=Wafer
*End Instance
**  
*Instance, name=Blade-1, part=Blade
     0.00025,   0.00045545,           0.
*End Instance
**  
*Nset, nset=_PickedSet6, internal, instance=Wafer-1
   1,   4, 525, 526, 527, 528, 529, 530, 531, 532, 533, 534, 535, 536, 537, 538
 539, 540, 541, 542, 543, 544, 545, 546, 547, 548, 549, 550, 551, 552, 553, 554
 555, 556, 557, 558, 559, 560, 561, 562, 563, 564, 565, 566, 567, 568, 569, 570
 571, 572, 573, 574, 575, 576, 577, 578, 579, 580, 581, 582, 583, 584, 585, 586
 587, 588, 589, 590, 591, 592
*Elset, elset=_PickedSet6, internal, instance=Wafer-1, generate
     1,  15301,    225
*Nset, nset=_PickedSet7, internal, instance=Wafer-1
   5,   6, 615, 616, 617, 618, 619, 620, 621, 622, 623, 624, 625, 626, 627, 628
 629, 630, 631, 632, 633, 634, 635, 636, 637, 638, 639, 640, 641, 642, 643, 644
 645, 646, 647, 648, 649, 650, 651, 652, 653, 654, 655, 656, 657, 658, 659, 660
 661, 662, 663, 664, 665, 666, 667, 668, 669, 670, 671, 672, 673, 674, 675, 676
 677, 678, 679, 680, 681, 682, 683, 684, 685, 686, 687, 688, 689, 690, 691, 692
 693, 694, 695, 696, 697, 698, 699, 700, 701, 702, 703, 704, 705, 706, 707, 708
 709, 710, 711, 712, 713, 714, 715, 716, 717, 718, 719, 720, 721, 722, 723, 724
 725, 726, 727, 728, 729, 730, 731, 732, 733, 734, 735, 736, 737, 738, 739, 740
 741, 742, 743, 744, 745, 746, 747, 748, 749, 750, 751, 752, 753, 754, 755, 756
 757, 758, 759, 760, 761, 762, 763, 764, 765, 766, 767, 768, 769, 770, 771, 772
 773, 774, 775, 776, 777, 778, 779, 780, 781, 782, 783, 784, 785, 786, 787, 788
 789, 790, 791, 792, 793, 794, 795, 796, 797, 798, 799, 800, 801, 802, 803, 804
 805, 806, 807, 808, 809, 810, 811, 812, 813, 814, 815, 816, 817, 818, 819, 820
 821, 822, 823, 824, 825, 826, 827, 828, 829, 830, 831, 832, 833, 834, 835, 836
 837, 838
*Elset, elset=_PickedSet7, internal, instance=Wafer-1, generate
 20476,  20700,      1
*Nset, nset=_PickedSet8, internal, instance=Wafer-1
    7,    8,  883,  884,  885,  886,  887,  888,  889,  890,  891,  892,  893,  894,  895,  896
  897,  898,  899,  900,  901,  902,  903,  904,  905,  906,  907,  908,  909,  910,  911,  912
  913,  914,  915,  916,  917,  918,  919,  920,  921,  922,  923,  924,  925,  926,  927,  928
  929,  930,  931,  932,  933,  934,  935,  936,  937,  938,  939,  940,  941,  942,  943,  944
  945,  946,  947,  948,  949,  950,  951,  952,  953,  954,  955,  956,  957,  958,  959,  960
  961,  962,  963,  964,  965,  966,  967,  968,  969,  970,  971,  972,  973,  974,  975,  976
  977,  978,  979,  980,  981,  982,  983,  984,  985,  986,  987,  988,  989,  990,  991,  992
  993,  994,  995,  996,  997,  998,  999, 1000, 1001, 1002, 1003, 1004, 1005, 1006, 1007, 1008
 1009, 1010, 1011, 1012, 1013, 1014, 1015, 1016, 1017, 1018, 1019, 1020, 1021, 1022, 1023, 1024
 1025, 1026, 1027, 1028, 1029, 1030, 1031, 1032, 1033, 1034, 1035, 1036, 1037, 1038, 1039, 1040
 1041, 1042, 1043, 1044, 1045, 1046, 1047, 1048, 1049, 1050, 1051, 1052, 1053, 1054, 1055, 1056
 1057, 1058, 1059, 1060, 1061, 1062, 1063, 1064, 1065, 1066, 1067, 1068, 1069, 1070, 1071, 1072
 1073, 1074, 1075, 1076, 1077, 1078, 1079, 1080, 1081, 1082, 1083, 1084, 1085, 1086, 1087, 1088
 1089, 1090, 1091, 1092, 1093, 1094, 1095, 1096, 1097, 1098, 1099, 1100, 1101, 1102, 1103, 1104
 1105, 1106
*Elset, elset=_PickedSet8, internal, instance=Wafer-1, generate
 25651,  25875,      1
*Nset, nset=_PickedSet9, internal, instance=Blade-1, generate
   1,  181,   15
*Elset, elset=_PickedSet9, internal, instance=Blade-1, generate
   1,  155,   14
*Nset, nset=_PickedSet10, internal, instance=Blade-1, generate
   1,  181,   15
*Elset, elset=_PickedSet10, internal, instance=Blade-1, generate
   1,  155,   14
*Nset, nset=_PickedSet13, internal, instance=Blade-1, generate
   1,  181,   15
*Elset, elset=_PickedSet13, internal, instance=Blade-1, generate
   1,  155,   14
*Elset, elset=_BladeSurf_S2, internal, instance=Blade-1, generate
  42,  140,   14
*Surface, type=ELEMENT, name=BladeSurf
_BladeSurf_S2, S2
*Elset, elset=_WaferTop_S2, internal, instance=Wafer-1, generate
   225,  20700,    225
*Elset, elset=_WaferTop_S4, internal, instance=Wafer-1, generate
 20701,  25651,    225
*Surface, type=ELEMENT, name=WaferTop
_WaferTop_S2, S2
_WaferTop_S4, S4
*End Assembly
** 
** ELEMENT CONTROLS
** 
*Section Controls, name=EC-1, DISTORTION CONTROL=YES, hourglass=ENHANCED
1., 1., 1.
** 
** MATERIALS
** 
*Material, name=M_4H_SiC
*Damage Initiation, criterion=DUCTILE
    0.25,       -2.,        0.
   0.075,       -1.,        0.
   0.025, -0.333333,        0.
    0.01,        0.,        0.
   0.005,  0.333333,        0.
  0.0025,  0.666667,        0.
 0.00125,        1.,        0.
*Damage Evolution, type=ENERGY
 17.5,
*Density
3210.,
*Drucker Prager
 68.8,1.,0.
*Drucker Prager Hardening, type=SHEAR
 1e+09,0.
*Elastic
 4.48e+11, 0.21
*Material, name=Resin_bond_blade
*Density
3500.,
*Elastic
 6e+10, 0.25
** 
** INTERACTION PROPERTIES
** 
*Surface Interaction, name=FricContact
*Friction
 0.3,
*Surface Behavior, pressure-overclosure=HARD
** 
** BOUNDARY CONDITIONS
** 
** Name: BladeLateral Type: Displacement/Rotation
*Boundary
_PickedSet9, 6, 6
** Name: WaferBottom Type: Symmetry/Antisymmetry/Encastre
*Boundary
_PickedSet6, ENCASTRE
** Name: WaferLeft Type: Displacement/Rotation
*Boundary
_PickedSet7, 1, 1
** Name: WaferRight Type: Displacement/Rotation
*Boundary
_PickedSet8, 1, 1
** ----------------------------------------------------------------
** 
** STEP: Plunge
** 
**
** AMPLITUDE
**
*Amplitude, name=BladeRamp, definition=SMOOTH STEP
0., 0., 4.4400e-05, 1.
*Step, name=Plunge, nlgeom=YES
*Dynamic, Explicit
, 0.000444
*Bulk Viscosity
0.12, 1.2
** Mass Scaling: Semi-Automatic
**               Whole Model
*Fixed Mass Scaling, dt=1.00e-08, type=BELOW MIN
** 
** BOUNDARY CONDITIONS
** 
** Name: BladeMotion Type: Velocity/Angular velocity
*Boundary, type=VELOCITY
_PickedSet10, 1, 1
*Boundary, type=VELOCITY, AMPLITUDE=BladeRamp
_PickedSet10, 2, 2, -0.5
** 
** INTERACTIONS
** 
** Interaction: BladeCut
*Contact Pair, interaction=FricContact, mechanical constraint=PENALTY, cpset=BladeCut
WaferTop, BladeSurf
** 
** OUTPUT REQUESTS
** 
*Restart, write, number interval=1, time marks=NO
** 
** FIELD OUTPUT: F-Output-1
** 
*Output, field, time interval=2.488e-05
*Node Output
U, 
*Element Output, directions=YES
ENER, PEEQ, S, SDV, STATUS
** 
** HISTORY OUTPUT: H-Output-1
** 
*Output, history, variable=PRESELECT
** 
** HISTORY OUTPUT: BladeForce
** 
*Output, history, time interval=1.48e-06
*Node Output, nset=_PickedSet13
RF1, RF2, U1, U2
*End Step
** ----------------------------------------------------------------
** 
** STEP: Feed
** 
*Step, name=Feed, nlgeom=YES
*Dynamic, Explicit
, 0.0008
*Bulk Viscosity
0.12, 1.2
** Mass Scaling: Semi-Automatic
**               Whole Model
*Fixed Mass Scaling, dt=1.00e-08, type=BELOW MIN
** 
** BOUNDARY CONDITIONS
** 
** Name: BladeMotion Type: Velocity/Angular velocity
*Boundary, type=VELOCITY
_PickedSet10, 1, 1, 0.5
_PickedSet10, 2, 2
** 
** OUTPUT REQUESTS
** 
*Restart, write, number interval=1, time marks=NO
** 
** FIELD OUTPUT: F-Output-1
** 
*Output, field, time interval=2.488e-05
*Node Output
U, 
*Element Output, directions=YES
ENER, PEEQ, S, SDV, STATUS
** 
** HISTORY OUTPUT: H-Output-1
** 
*Output, history, variable=PRESELECT
** 
** HISTORY OUTPUT: BladeForce
** 
*Output, history, time interval=2.66667e-06
*Node Output, nset=_PickedSet13
RF1, RF2, U1, U2
*End Step
